Info: SIMULATION PARAMETERS:
Info: TIMESTEP               2
Info: NUMBER OF STEPS        0
Info: STEPS PER CYCLE        10
Info: PERIODIC CELL BASIS 1  25.212 0 0
Info: PERIODIC CELL BASIS 2  0 21.995 0
Info: PERIODIC CELL BASIS 3  0 0 21.458
Info: PERIODIC CELL CENTER   0.0252816 -0.187059 0.0209715
Info: WRAPPING ALL CLUSTERS AROUND PERIODIC BOUNDARIES ON OUTPUT.
Info: FIRST LDB TIMESTEP     50
Info: LAST LDB TIMESTEP     -1
Info: HOM BACKGROUND SCALING 1
Info: PME BACKGROUND SCALING 1
Info: MIN ATOMS PER PATCH    40
Info: INITIAL TEMPERATURE    310
Info: CENTER OF MASS MOVING INITIALLY? NO
Info: DIELECTRIC             1
Info: EXCLUDE                SCALED ONE-FOUR
Info: 1-4 ELECTROSTATICS SCALED BY 1
Info: MODIFIED 1-4 VDW PARAMETERS WILL BE USED
Info: DCD FILENAME           final_butane.dcd
Info: DCD FREQUENCY          250
Info: DCD FIRST STEP         250
Info: DCD FILE WILL CONTAIN UNIT CELL DATA
Info: XST FILENAME           final_butane.xst
Info: XST FREQUENCY          250
Info: NO VELOCITY DCD OUTPUT
Info: NO FORCE DCD OUTPUT
Info: OUTPUT FILENAME        final_butane
Info: BINARY OUTPUT FILES WILL BE USED
Info: RESTART FILENAME       final_butane.restart
Info: RESTART FREQUENCY      500
Info: BINARY RESTART FILES WILL BE USED
Info: SWITCHING ACTIVE
Info: SWITCHING ON           10
Info: SWITCHING OFF          12
Info: PAIRLIST DISTANCE      14
Info: PAIRLIST SHRINK RATE   0.01
Info: PAIRLIST GROW RATE     0.01
Info: PAIRLIST TRIGGER       0.3
Info: PAIRLISTS PER CYCLE    2
Info: PAIRLISTS ENABLED
Info: MARGIN                 0.495
Info: HYDROGEN GROUP CUTOFF  2.5
Info: PATCH DIMENSION        16.995
Info: ENERGY OUTPUT STEPS    100
Info: CROSSTERM ENERGY INCLUDED IN DIHEDRAL
Info: TIMING OUTPUT STEPS    1000
Info: PRESSURE OUTPUT STEPS  100
Info: LANGEVIN DYNAMICS ACTIVE
Info: LANGEVIN TEMPERATURE   310
Info: LANGEVIN USING BBK INTEGRATOR
Info: LANGEVIN DAMPING COEFFICIENT IS 1 INVERSE PS
Info: LANGEVIN DYNAMICS NOT APPLIED TO HYDROGENS
Info: LANGEVIN PISTON PRESSURE CONTROL ACTIVE
Info:        TARGET PRESSURE IS 1.01325 BAR
Info:     OSCILLATION PERIOD IS 100 FS
Info:             DECAY TIME IS 50 FS
Info:     PISTON TEMPERATURE IS 310 K
Info:       PRESSURE CONTROL IS GROUP-BASED
Info:    INITIAL STRAIN RATE IS 0 0 0
Info:       CELL FLUCTUATION IS ISOTROPIC
Info: PARTICLE MESH EWALD (PME) ACTIVE
Info: PME TOLERANCE               1e-06
Info: PME EWALD COEFFICIENT       0.257952
Info: PME INTERPOLATION ORDER     4
Info: PME GRID DIMENSIONS         28 24 24
Info: PME MAXIMUM GRID SPACING    1
Info: FULL ELECTROSTATIC EVALUATION FREQUENCY      2
Info: USING VERLET I (r-RESPA) MTS SCHEME.
Info: C1 SPLITTING OF LONG RANGE ELECTROSTATICS
Info: PLACING ATOMS IN PATCHES BY HYDROGEN GROUPS
Info: RIGID BONDS TO HYDROGEN : ALL
Info:         ERROR TOLERANCE : 1e-08
Info:          MAX ITERATIONS : 100
Info: RIGID WATER USING SETTLE ALGORITHM
Info: RANDOM NUMBER SEED     1539772075
Info: USE HYDROGEN BONDS?    NO
Info: COORDINATE PDB         /home/shreeya/solvatedB.pdb
Info: STRUCTURE FILE         /home/shreeya/solvatedB.psf
Info: PARAMETER file: CHARMM format!
Info: PARAMETERS             /home/shreeya/Desktop/Charmm/toppar/par_all36m_prot.prm
Info: PARAMETERS             /home/shreeya/Desktop/Charmm/toppar/par_all36_na.prm
Info: PARAMETERS             /home/shreeya/Desktop/Charmm/toppar/par_all36_carb.prm
Info: PARAMETERS             /home/shreeya/Desktop/Charmm/toppar/par_all36_lipid.prm
Info: PARAMETERS             /home/shreeya/Desktop/Charmm/toppar/par_all36_cgenff.prm
Info: PARAMETERS             /home/shreeya/Desktop/Charmm/toppar/toppar_water_ions.str
Info: USING ARITHMETIC MEAN TO COMBINE L-J SIGMA PARAMETERS
Info: SUMMARY OF PARAMETERS:
Info: 953 BONDS
Info: 2799 ANGLES
Info: 6874 DIHEDRAL
Info: 196 IMPROPER
Info: 6 CROSSTERM
Info: 355 VDW
Info: 94 VDW_PAIRS
Info: 0 NBTHOLE_PAIRS
Info: STRUCTURE SUMMARY:
Info: 1016 ATOMS
Info: 681 BONDS
Info: 358 ANGLES
Info: 27 DIHEDRALS
Info: 0 IMPROPERS
Info: 0 CROSSTERMS
Info: 0 EXCLUSIONS
Info: 1012 RIGID BONDS
Info: 2036 DEGREES OF FREEDOM
Info: 338 HYDROGEN GROUPS
Info: 4 ATOMS IN LARGEST HYDROGEN GROUP
Info: 338 MIGRATION GROUPS
Info: 4 ATOMS IN LARGEST MIGRATION GROUP
Info: TOTAL MASS = 6075.27 amu
Info: TOTAL CHARGE = 0 e
Info: MASS DENSITY = 0.847821 g/cm^3
Info: ATOM DENSITY = 0.0853834 atoms/A^3
Info: ADDED 1066 IMPLICIT EXCLUSIONS
Info: NONBONDED TABLE R-SQUARED SPACING: 0.0625
Info: NONBONDED TABLE SIZE: 769 POINTS
Info: REMOVING COM VELOCITY -0.352825 -0.290624 -0.386166
TCL: Minimizing for 1000 steps
ETITLE: TS BOND ANGLE DIHED IMPRP ELECT VDW BOUNDARY MISC KINETIC TOTAL TEMP POTENTIAL TOTAL3 TEMPAVG PRESSURE GPRESSURE VOLUME PRESSAVG GPRESSAVG
ENERGY: 0 0.2746 0.7177 0.0825 0.0000 -2695.1809 16924990.8830 0.0000 0.0000 0.0000 16922296.7769 0.0000 16922296.7769 16922296.7769 0.0000 395469831.4522 138405198.3524 11899.2751 395469831.4522 138405198.3524
ENERGY: 200 1.0215 1.8105 0.1127 0.0000 -3939.0324 381.9766 0.0000 0.0000 0.0000 -3554.1110 0.0000 -3554.1110 -3554.1110 0.0000 15478.1969 -4482.6424 11899.2751 15478.1969 -4482.6424
ENERGY: 400 5.0485 3.8502 0.1240 0.0000 -4159.9616 426.3825 0.0000 0.0000 0.0000 -3724.5564 0.0000 -3724.5564 -3724.5564 0.0000 16460.4559 -4695.8617 11899.2751 16460.4559 -4695.8617
ENERGY: 600 0.2241 0.4679 0.1027 0.0000 -4285.8785 471.1836 0.0000 0.0000 0.0000 -3813.9002 0.0000 -3813.9002 -3813.9002 0.0000 17645.1523 -4189.7812 11899.2751 17645.1523 -4189.7812
ENERGY: 800 0.0847 0.3838 0.1061 0.0000 -4343.8563 495.4088 0.0000 0.0000 0.0000 -3847.8729 0.0000 -3847.8729 -3847.8729 0.0000 18273.0539 -3866.1064 11899.2751 18273.0539 -3866.1064
ENERGY: 1000 0.5451 0.6585 0.1083 0.0000 -4394.3554 518.9596 0.0000 0.0000 0.0000 -3874.0838 0.0000 -3874.0838 -3874.0838 0.0000 18779.8666 -3546.1427 11899.2751 18779.8666 -3546.1427
TCL: Running for 25000 steps
ETITLE: TS BOND ANGLE DIHED IMPRP ELECT VDW BOUNDARY MISC KINETIC TOTAL TEMP POTENTIAL TOTAL3 TEMPAVG PRESSURE GPRESSURE VOLUME PRESSAVG GPRESSAVG
ENERGY: 1000 0.5451 0.6585 0.1083 0.0000 -4394.3554 518.9596 0.0000 0.0000 628.0106 -3246.0732 310.4413 -3874.0838 -3246.5516 310.4413 -2492.0808 -2457.0609 11899.2751 -2492.0808 -2457.0609
ENERGY: 6000 1.6795 8.2357 1.6057 0.0000 -3600.8024 318.8988 0.0000 0.0000 606.9216 -2663.4612 300.0165 -3270.3827 -2662.4257 296.9359 -800.6445 -817.0026 10219.5642 -40.4653 -41.7872
ENERGY: 11000 0.3892 8.7704 0.6134 0.0000 -3556.5544 313.5612 0.0000 0.0000 609.6136 -2623.6065 301.3473 -3233.2201 -2622.5071 309.1853 -726.7184 -673.9734 10050.9538 -37.0738 -36.0685
ENERGY: 16000 0.7197 4.8218 0.7017 0.0000 -3600.5876 349.7817 0.0000 0.0000 664.4509 -2580.1118 328.4547 -3244.5627 -2578.9455 307.3000 601.6335 629.8402 10065.5874 -57.7257 -58.0168
ENERGY: 21000 0.0339 6.6073 2.1384 0.0000 -3601.1028 345.7545 0.0000 0.0000 613.2720 -2633.2967 303.1557 -3246.5687 -2631.7185 307.3378 194.2329 233.4168 10120.4446 42.0469 42.8015
ENERGY: 26000 1.0768 9.9621 0.3482 0.0000 -3602.9922 361.0210 0.0000 0.0000 645.1104 -2585.4737 318.8942 -3230.5841 -2584.5771 315.5157 1023.6560 1067.0199 10051.9505 -34.0673 -33.3853
