Info: SIMULATION PARAMETERS:
Info: TIMESTEP               2
Info: NUMBER OF STEPS        500000
Info: STEPS PER CYCLE        20
Info: FIRST LDB TIMESTEP     100
Info: LAST LDB TIMESTEP     -1
Info: HOM BACKGROUND SCALING 1
Info: MIN ATOMS PER PATCH    40
Info: VELOCITY FILE          final_ad.vel
Info: CENTER OF MASS MOVING INITIALLY? NO
Info: DIELECTRIC             1
Info: EXCLUDE                SCALED ONE-FOUR
Info: 1-4 ELECTROSTATICS SCALED BY 1
Info: MODIFIED 1-4 VDW PARAMETERS WILL BE USED
Info: DCD FILENAME           prod_ad.dcd
Info: DCD FREQUENCY          2500
Info: DCD FIRST STEP         2500
Info: DCD FILE WILL CONTAIN UNIT CELL DATA
Info: XST FILENAME           prod_ad.xst
Info: XST FREQUENCY          5000
Info: NO VELOCITY DCD OUTPUT
Info: NO FORCE DCD OUTPUT
Info: OUTPUT FILENAME        prod_ad
Info: BINARY OUTPUT FILES WILL BE USED
Info: RESTART FILENAME       prod_ad.restart
Info: RESTART FREQUENCY      2500
Info: BINARY RESTART FILES WILL BE USED
Info: SWITCHING ACTIVE
Info: VDW FORCE SWITCHING ACTIVE
Info: SWITCHING ON           10
Info: SWITCHING OFF          12
Info: PAIRLIST DISTANCE      16
Info: PAIRLIST SHRINK RATE   0.01
Info: PAIRLIST GROW RATE     0.01
Info: PAIRLIST TRIGGER       0.3
Info: PAIRLISTS PER CYCLE    2
Info: PAIRLISTS ENABLED
Info: MARGIN                 0
Info: HYDROGEN GROUP CUTOFF  2.5
Info: PATCH DIMENSION        18.5
Info: ENERGY OUTPUT STEPS    500
Info: CROSSTERM ENERGY INCLUDED IN DIHEDRAL
Info: TIMING OUTPUT STEPS    1000
Info: LANGEVIN DYNAMICS ACTIVE
Info: LANGEVIN TEMPERATURE   303.15
Info: LANGEVIN USING BBK INTEGRATOR
Info: LANGEVIN DAMPING COEFFICIENT IS 1 INVERSE PS
Info: LANGEVIN DYNAMICS NOT APPLIED TO HYDROGENS
Info: USING VERLET I (r-RESPA) MTS SCHEME.
Info: C1 SPLITTING OF LONG RANGE ELECTROSTATICS
Info: PLACING ATOMS IN PATCHES BY HYDROGEN GROUPS
Info: RIGID BONDS TO HYDROGEN : ALL
Info:         ERROR TOLERANCE : 1e-08
Info:          MAX ITERATIONS : 100
Info: RIGID WATER USING SETTLE ALGORITHM
Info: RANDOM NUMBER SEED     1540374914
Info: USE HYDROGEN BONDS?    NO
Info: COORDINATE PDB         ./ad_autopsf.pdb
Info: STRUCTURE FILE         ./ad_autopsf.psf
Info: PARAMETER file: CHARMM format!
Info: PARAMETERS             toppar/par_all36m_prot.prm
Info: PARAMETERS             toppar/par_all36_na.prm
Info: PARAMETERS             toppar/par_all36_carb.prm
Info: PARAMETERS             toppar/par_all36_lipid.prm
Info: PARAMETERS             toppar/par_all36_cgenff.prm
Info: PARAMETERS             toppar/toppar_water_ions.str
Info: USING ARITHMETIC MEAN TO COMBINE L-J SIGMA PARAMETERS
Info: BINARY COORDINATES     final_ad.coor
Info: SUMMARY OF PARAMETERS:
Info: 953 BONDS
Info: 2799 ANGLES
Info: 6874 DIHEDRAL
Info: 196 IMPROPER
Info: 6 CROSSTERM
Info: 355 VDW
Info: 94 VDW_PAIRS
Info: 0 NBTHOLE_PAIRS
Info: STRUCTURE SUMMARY:
Info: 22 ATOMS
Info: 21 BONDS
Info: 36 ANGLES
Info: 41 DIHEDRALS
Info: 2 IMPROPERS
Info: 0 CROSSTERMS
Info: 0 EXCLUSIONS
Info: 12 RIGID BONDS
Info: 54 DEGREES OF FREEDOM
Info: 10 HYDROGEN GROUPS
Info: 4 ATOMS IN LARGEST HYDROGEN GROUP
Info: 10 MIGRATION GROUPS
Info: 4 ATOMS IN LARGEST MIGRATION GROUP
Info: TOTAL MASS = 144.175 amu
Info: TOTAL CHARGE = 2.23517e-08 e
Info: ADDED 98 IMPLICIT EXCLUSIONS
Info: NONBONDED TABLE R-SQUARED SPACING: 0.0625
Info: NONBONDED TABLE SIZE: 769 POINTS
Info: ORIGINAL ATOMS MINMAX IS 7.57309 12.0385 4.70484  12.3896 15.9399 12.0509
Info: ADJUSTED ATOMS MINMAX IS 7.17596 11.9973 4.44996  12.531 15.0537 11.9071
Info: REMOVING COM VELOCITY 2.43295 -0.0543925 0.915457
TCL: Original numsteps 500000 will be ignored.
TCL: Running for 500000 steps
ETITLE: TS BOND ANGLE DIHED IMPRP ELECT VDW BOUNDARY MISC KINETIC TOTAL TEMP POTENTIAL TOTAL3 TEMPAVG
ENERGY: 0 3.9998 13.8171 5.9382 0.2090 -21.7380 0.8112 0.0000 0.0000 14.2756 17.3129 266.0668 3.0373 17.5629 266.0668
ENERGY: 100000 1.7989 9.6993 4.8231 1.1051 -18.5186 1.2611 0.0000 0.0000 16.5181 16.6869 307.8627 0.1688 16.9406 315.7851
ENERGY: 200000 2.3390 8.3729 4.9276 0.3378 -17.2980 -0.0987 0.0000 0.0000 16.2610 14.8417 303.0716 -1.4194 15.1738 324.0793
ENERGY: 300000 4.5067 10.4747 7.0128 0.7319 -15.8558 -0.9666 0.0000 0.0000 18.0931 23.9967 337.2164 5.9036 24.3851 315.6291
ENERGY: 400000 6.6654 7.6348 5.7915 0.5094 -19.9117 1.8630 0.0000 0.0000 10.9636 13.5161 204.3389 2.5525 13.6752 297.3941
ENERGY: 500000 1.7076 13.0062 6.3886 0.1136 -20.9922 0.1284 0.0000 0.0000 16.3271 16.6794 304.3026 0.3523 17.0780 283.4099
